# ###### Created on Tue Nov 22 12:14:10 2011 ######
[General]
network = gammaScenario
rng-class = cMersenneTwister
seed-0-mt = 1
output-scalar-file = run1-scalars.sca
# output-vectors-file = run1-vectors.vec
# --- Note: Set sim-time-limit larger than Controller::statisticsWriteTimeStamp! ---
sim-time-limit = 15min 7200s 1ms
simtime-resolution = 10ns   # 10ns time scale (old format: simtime-scale = -8)

cmdenv-express-mode = true

**.vector-recording = false
**.vector-recording-intervals = 15min..15min 7200s

###### Basic Scenario Settings #############################################
gammaScenario.controller.statisticsResetTime = 15min
gammaScenario.controller.statisticsWriteTime = 15min 7200s

###### Special Settings #####################################################


###### LAN Settings #########################################################
gammaScenario.numberOfLANs = 1
# ----- LAN #1 -----
gammaScenario.lan[0].numberOfRegistrars = 1
gammaScenario.lan[0].numberOfCalcAppPoolElements = 10
gammaScenario.lan[0].numberOfCalcAppPoolUsers = 100
gammaScenario.lan[0].numberOfAttackers = 0
gammaScenario.lan[0].registrarArray[0].transportNode.interfaceAddress = 1
gammaScenario.lan[0].switch.toRegistrar[0].channel.delay = 0ms
gammaScenario.lan[0].registrarArray[0].toNetwork.channel.delay = 0ms
gammaScenario.lan[0].calcAppPoolElementArray[0].transportNode.interfaceAddress = 2
gammaScenario.lan[0].calcAppPoolElementArray[0].registrarTable.staticRegistrarsList = "1 "
gammaScenario.lan[0].switch.toCalcAppPoolElement[0].channel.delay = 0ms
gammaScenario.lan[0].calcAppPoolElementArray[0].toNetwork.channel.delay = 0ms
gammaScenario.lan[0].calcAppPoolElementArray[1].transportNode.interfaceAddress = 3
gammaScenario.lan[0].calcAppPoolElementArray[1].registrarTable.staticRegistrarsList = "1 "
gammaScenario.lan[0].switch.toCalcAppPoolElement[1].channel.delay = 0ms
gammaScenario.lan[0].calcAppPoolElementArray[1].toNetwork.channel.delay = 0ms
gammaScenario.lan[0].calcAppPoolElementArray[2].transportNode.interfaceAddress = 4
gammaScenario.lan[0].calcAppPoolElementArray[2].registrarTable.staticRegistrarsList = "1 "
gammaScenario.lan[0].switch.toCalcAppPoolElement[2].channel.delay = 0ms
gammaScenario.lan[0].calcAppPoolElementArray[2].toNetwork.channel.delay = 0ms
gammaScenario.lan[0].calcAppPoolElementArray[3].transportNode.interfaceAddress = 5
gammaScenario.lan[0].calcAppPoolElementArray[3].registrarTable.staticRegistrarsList = "1 "
gammaScenario.lan[0].switch.toCalcAppPoolElement[3].channel.delay = 0ms
gammaScenario.lan[0].calcAppPoolElementArray[3].toNetwork.channel.delay = 0ms
gammaScenario.lan[0].calcAppPoolElementArray[4].transportNode.interfaceAddress = 6
gammaScenario.lan[0].calcAppPoolElementArray[4].registrarTable.staticRegistrarsList = "1 "
gammaScenario.lan[0].switch.toCalcAppPoolElement[4].channel.delay = 0ms
gammaScenario.lan[0].calcAppPoolElementArray[4].toNetwork.channel.delay = 0ms
gammaScenario.lan[0].calcAppPoolElementArray[5].transportNode.interfaceAddress = 7
gammaScenario.lan[0].calcAppPoolElementArray[5].registrarTable.staticRegistrarsList = "1 "
gammaScenario.lan[0].switch.toCalcAppPoolElement[5].channel.delay = 0ms
gammaScenario.lan[0].calcAppPoolElementArray[5].toNetwork.channel.delay = 0ms
gammaScenario.lan[0].calcAppPoolElementArray[6].transportNode.interfaceAddress = 8
gammaScenario.lan[0].calcAppPoolElementArray[6].registrarTable.staticRegistrarsList = "1 "
gammaScenario.lan[0].switch.toCalcAppPoolElement[6].channel.delay = 0ms
gammaScenario.lan[0].calcAppPoolElementArray[6].toNetwork.channel.delay = 0ms
gammaScenario.lan[0].calcAppPoolElementArray[7].transportNode.interfaceAddress = 9
gammaScenario.lan[0].calcAppPoolElementArray[7].registrarTable.staticRegistrarsList = "1 "
gammaScenario.lan[0].switch.toCalcAppPoolElement[7].channel.delay = 0ms
gammaScenario.lan[0].calcAppPoolElementArray[7].toNetwork.channel.delay = 0ms
gammaScenario.lan[0].calcAppPoolElementArray[8].transportNode.interfaceAddress = 10
gammaScenario.lan[0].calcAppPoolElementArray[8].registrarTable.staticRegistrarsList = "1 "
gammaScenario.lan[0].switch.toCalcAppPoolElement[8].channel.delay = 0ms
gammaScenario.lan[0].calcAppPoolElementArray[8].toNetwork.channel.delay = 0ms
gammaScenario.lan[0].calcAppPoolElementArray[9].transportNode.interfaceAddress = 11
gammaScenario.lan[0].calcAppPoolElementArray[9].registrarTable.staticRegistrarsList = "1 "
gammaScenario.lan[0].switch.toCalcAppPoolElement[9].channel.delay = 0ms
gammaScenario.lan[0].calcAppPoolElementArray[9].toNetwork.channel.delay = 0ms
gammaScenario.lan[0].calcAppPoolUserArray[0].transportNode.interfaceAddress = 12
gammaScenario.lan[0].calcAppPoolUserArray[0].registrarTable.staticRegistrarsList = "1 "
gammaScenario.lan[0].switch.toCalcAppPoolUser[0].channel.delay = 0ms
gammaScenario.lan[0].calcAppPoolUserArray[0].toNetwork.channel.delay = 0ms
gammaScenario.lan[0].calcAppPoolUserArray[1].transportNode.interfaceAddress = 13
gammaScenario.lan[0].calcAppPoolUserArray[1].registrarTable.staticRegistrarsList = "1 "
gammaScenario.lan[0].switch.toCalcAppPoolUser[1].channel.delay = 0ms
gammaScenario.lan[0].calcAppPoolUserArray[1].toNetwork.channel.delay = 0ms
gammaScenario.lan[0].calcAppPoolUserArray[2].transportNode.interfaceAddress = 14
gammaScenario.lan[0].calcAppPoolUserArray[2].registrarTable.staticRegistrarsList = "1 "
gammaScenario.lan[0].switch.toCalcAppPoolUser[2].channel.delay = 0ms
gammaScenario.lan[0].calcAppPoolUserArray[2].toNetwork.channel.delay = 0ms
gammaScenario.lan[0].calcAppPoolUserArray[3].transportNode.interfaceAddress = 15
gammaScenario.lan[0].calcAppPoolUserArray[3].registrarTable.staticRegistrarsList = "1 "
gammaScenario.lan[0].switch.toCalcAppPoolUser[3].channel.delay = 0ms
gammaScenario.lan[0].calcAppPoolUserArray[3].toNetwork.channel.delay = 0ms
gammaScenario.lan[0].calcAppPoolUserArray[4].transportNode.interfaceAddress = 16
gammaScenario.lan[0].calcAppPoolUserArray[4].registrarTable.staticRegistrarsList = "1 "
gammaScenario.lan[0].switch.toCalcAppPoolUser[4].channel.delay = 0ms
gammaScenario.lan[0].calcAppPoolUserArray[4].toNetwork.channel.delay = 0ms
gammaScenario.lan[0].calcAppPoolUserArray[5].transportNode.interfaceAddress = 17
gammaScenario.lan[0].calcAppPoolUserArray[5].registrarTable.staticRegistrarsList = "1 "
gammaScenario.lan[0].switch.toCalcAppPoolUser[5].channel.delay = 0ms
gammaScenario.lan[0].calcAppPoolUserArray[5].toNetwork.channel.delay = 0ms
gammaScenario.lan[0].calcAppPoolUserArray[6].transportNode.interfaceAddress = 18
gammaScenario.lan[0].calcAppPoolUserArray[6].registrarTable.staticRegistrarsList = "1 "
gammaScenario.lan[0].switch.toCalcAppPoolUser[6].channel.delay = 0ms
gammaScenario.lan[0].calcAppPoolUserArray[6].toNetwork.channel.delay = 0ms
gammaScenario.lan[0].calcAppPoolUserArray[7].transportNode.interfaceAddress = 19
gammaScenario.lan[0].calcAppPoolUserArray[7].registrarTable.staticRegistrarsList = "1 "
gammaScenario.lan[0].switch.toCalcAppPoolUser[7].channel.delay = 0ms
gammaScenario.lan[0].calcAppPoolUserArray[7].toNetwork.channel.delay = 0ms
gammaScenario.lan[0].calcAppPoolUserArray[8].transportNode.interfaceAddress = 20
gammaScenario.lan[0].calcAppPoolUserArray[8].registrarTable.staticRegistrarsList = "1 "
gammaScenario.lan[0].switch.toCalcAppPoolUser[8].channel.delay = 0ms
gammaScenario.lan[0].calcAppPoolUserArray[8].toNetwork.channel.delay = 0ms
gammaScenario.lan[0].calcAppPoolUserArray[9].transportNode.interfaceAddress = 21
gammaScenario.lan[0].calcAppPoolUserArray[9].registrarTable.staticRegistrarsList = "1 "
gammaScenario.lan[0].switch.toCalcAppPoolUser[9].channel.delay = 0ms
gammaScenario.lan[0].calcAppPoolUserArray[9].toNetwork.channel.delay = 0ms
gammaScenario.lan[0].calcAppPoolUserArray[10].transportNode.interfaceAddress = 22
gammaScenario.lan[0].calcAppPoolUserArray[10].registrarTable.staticRegistrarsList = "1 "
gammaScenario.lan[0].switch.toCalcAppPoolUser[10].channel.delay = 0ms
gammaScenario.lan[0].calcAppPoolUserArray[10].toNetwork.channel.delay = 0ms
gammaScenario.lan[0].calcAppPoolUserArray[11].transportNode.interfaceAddress = 23
gammaScenario.lan[0].calcAppPoolUserArray[11].registrarTable.staticRegistrarsList = "1 "
gammaScenario.lan[0].switch.toCalcAppPoolUser[11].channel.delay = 0ms
gammaScenario.lan[0].calcAppPoolUserArray[11].toNetwork.channel.delay = 0ms
gammaScenario.lan[0].calcAppPoolUserArray[12].transportNode.interfaceAddress = 24
gammaScenario.lan[0].calcAppPoolUserArray[12].registrarTable.staticRegistrarsList = "1 "
gammaScenario.lan[0].switch.toCalcAppPoolUser[12].channel.delay = 0ms
gammaScenario.lan[0].calcAppPoolUserArray[12].toNetwork.channel.delay = 0ms
gammaScenario.lan[0].calcAppPoolUserArray[13].transportNode.interfaceAddress = 25
gammaScenario.lan[0].calcAppPoolUserArray[13].registrarTable.staticRegistrarsList = "1 "
gammaScenario.lan[0].switch.toCalcAppPoolUser[13].channel.delay = 0ms
gammaScenario.lan[0].calcAppPoolUserArray[13].toNetwork.channel.delay = 0ms
gammaScenario.lan[0].calcAppPoolUserArray[14].transportNode.interfaceAddress = 26
gammaScenario.lan[0].calcAppPoolUserArray[14].registrarTable.staticRegistrarsList = "1 "
gammaScenario.lan[0].switch.toCalcAppPoolUser[14].channel.delay = 0ms
gammaScenario.lan[0].calcAppPoolUserArray[14].toNetwork.channel.delay = 0ms
gammaScenario.lan[0].calcAppPoolUserArray[15].transportNode.interfaceAddress = 27
gammaScenario.lan[0].calcAppPoolUserArray[15].registrarTable.staticRegistrarsList = "1 "
gammaScenario.lan[0].switch.toCalcAppPoolUser[15].channel.delay = 0ms
gammaScenario.lan[0].calcAppPoolUserArray[15].toNetwork.channel.delay = 0ms
gammaScenario.lan[0].calcAppPoolUserArray[16].transportNode.interfaceAddress = 28
gammaScenario.lan[0].calcAppPoolUserArray[16].registrarTable.staticRegistrarsList = "1 "
gammaScenario.lan[0].switch.toCalcAppPoolUser[16].channel.delay = 0ms
gammaScenario.lan[0].calcAppPoolUserArray[16].toNetwork.channel.delay = 0ms
gammaScenario.lan[0].calcAppPoolUserArray[17].transportNode.interfaceAddress = 29
gammaScenario.lan[0].calcAppPoolUserArray[17].registrarTable.staticRegistrarsList = "1 "
gammaScenario.lan[0].switch.toCalcAppPoolUser[17].channel.delay = 0ms
gammaScenario.lan[0].calcAppPoolUserArray[17].toNetwork.channel.delay = 0ms
gammaScenario.lan[0].calcAppPoolUserArray[18].transportNode.interfaceAddress = 30
gammaScenario.lan[0].calcAppPoolUserArray[18].registrarTable.staticRegistrarsList = "1 "
gammaScenario.lan[0].switch.toCalcAppPoolUser[18].channel.delay = 0ms
gammaScenario.lan[0].calcAppPoolUserArray[18].toNetwork.channel.delay = 0ms
gammaScenario.lan[0].calcAppPoolUserArray[19].transportNode.interfaceAddress = 31
gammaScenario.lan[0].calcAppPoolUserArray[19].registrarTable.staticRegistrarsList = "1 "
gammaScenario.lan[0].switch.toCalcAppPoolUser[19].channel.delay = 0ms
gammaScenario.lan[0].calcAppPoolUserArray[19].toNetwork.channel.delay = 0ms
gammaScenario.lan[0].calcAppPoolUserArray[20].transportNode.interfaceAddress = 32
gammaScenario.lan[0].calcAppPoolUserArray[20].registrarTable.staticRegistrarsList = "1 "
gammaScenario.lan[0].switch.toCalcAppPoolUser[20].channel.delay = 0ms
gammaScenario.lan[0].calcAppPoolUserArray[20].toNetwork.channel.delay = 0ms
gammaScenario.lan[0].calcAppPoolUserArray[21].transportNode.interfaceAddress = 33
gammaScenario.lan[0].calcAppPoolUserArray[21].registrarTable.staticRegistrarsList = "1 "
gammaScenario.lan[0].switch.toCalcAppPoolUser[21].channel.delay = 0ms
gammaScenario.lan[0].calcAppPoolUserArray[21].toNetwork.channel.delay = 0ms
gammaScenario.lan[0].calcAppPoolUserArray[22].transportNode.interfaceAddress = 34
gammaScenario.lan[0].calcAppPoolUserArray[22].registrarTable.staticRegistrarsList = "1 "
gammaScenario.lan[0].switch.toCalcAppPoolUser[22].channel.delay = 0ms
gammaScenario.lan[0].calcAppPoolUserArray[22].toNetwork.channel.delay = 0ms
gammaScenario.lan[0].calcAppPoolUserArray[23].transportNode.interfaceAddress = 35
gammaScenario.lan[0].calcAppPoolUserArray[23].registrarTable.staticRegistrarsList = "1 "
gammaScenario.lan[0].switch.toCalcAppPoolUser[23].channel.delay = 0ms
gammaScenario.lan[0].calcAppPoolUserArray[23].toNetwork.channel.delay = 0ms
gammaScenario.lan[0].calcAppPoolUserArray[24].transportNode.interfaceAddress = 36
gammaScenario.lan[0].calcAppPoolUserArray[24].registrarTable.staticRegistrarsList = "1 "
gammaScenario.lan[0].switch.toCalcAppPoolUser[24].channel.delay = 0ms
gammaScenario.lan[0].calcAppPoolUserArray[24].toNetwork.channel.delay = 0ms
gammaScenario.lan[0].calcAppPoolUserArray[25].transportNode.interfaceAddress = 37
gammaScenario.lan[0].calcAppPoolUserArray[25].registrarTable.staticRegistrarsList = "1 "
gammaScenario.lan[0].switch.toCalcAppPoolUser[25].channel.delay = 0ms
gammaScenario.lan[0].calcAppPoolUserArray[25].toNetwork.channel.delay = 0ms
gammaScenario.lan[0].calcAppPoolUserArray[26].transportNode.interfaceAddress = 38
gammaScenario.lan[0].calcAppPoolUserArray[26].registrarTable.staticRegistrarsList = "1 "
gammaScenario.lan[0].switch.toCalcAppPoolUser[26].channel.delay = 0ms
gammaScenario.lan[0].calcAppPoolUserArray[26].toNetwork.channel.delay = 0ms
gammaScenario.lan[0].calcAppPoolUserArray[27].transportNode.interfaceAddress = 39
gammaScenario.lan[0].calcAppPoolUserArray[27].registrarTable.staticRegistrarsList = "1 "
gammaScenario.lan[0].switch.toCalcAppPoolUser[27].channel.delay = 0ms
gammaScenario.lan[0].calcAppPoolUserArray[27].toNetwork.channel.delay = 0ms
gammaScenario.lan[0].calcAppPoolUserArray[28].transportNode.interfaceAddress = 40
gammaScenario.lan[0].calcAppPoolUserArray[28].registrarTable.staticRegistrarsList = "1 "
gammaScenario.lan[0].switch.toCalcAppPoolUser[28].channel.delay = 0ms
gammaScenario.lan[0].calcAppPoolUserArray[28].toNetwork.channel.delay = 0ms
gammaScenario.lan[0].calcAppPoolUserArray[29].transportNode.interfaceAddress = 41
gammaScenario.lan[0].calcAppPoolUserArray[29].registrarTable.staticRegistrarsList = "1 "
gammaScenario.lan[0].switch.toCalcAppPoolUser[29].channel.delay = 0ms
gammaScenario.lan[0].calcAppPoolUserArray[29].toNetwork.channel.delay = 0ms
gammaScenario.lan[0].calcAppPoolUserArray[30].transportNode.interfaceAddress = 42
gammaScenario.lan[0].calcAppPoolUserArray[30].registrarTable.staticRegistrarsList = "1 "
gammaScenario.lan[0].switch.toCalcAppPoolUser[30].channel.delay = 0ms
gammaScenario.lan[0].calcAppPoolUserArray[30].toNetwork.channel.delay = 0ms
gammaScenario.lan[0].calcAppPoolUserArray[31].transportNode.interfaceAddress = 43
gammaScenario.lan[0].calcAppPoolUserArray[31].registrarTable.staticRegistrarsList = "1 "
gammaScenario.lan[0].switch.toCalcAppPoolUser[31].channel.delay = 0ms
gammaScenario.lan[0].calcAppPoolUserArray[31].toNetwork.channel.delay = 0ms
gammaScenario.lan[0].calcAppPoolUserArray[32].transportNode.interfaceAddress = 44
gammaScenario.lan[0].calcAppPoolUserArray[32].registrarTable.staticRegistrarsList = "1 "
gammaScenario.lan[0].switch.toCalcAppPoolUser[32].channel.delay = 0ms
gammaScenario.lan[0].calcAppPoolUserArray[32].toNetwork.channel.delay = 0ms
gammaScenario.lan[0].calcAppPoolUserArray[33].transportNode.interfaceAddress = 45
gammaScenario.lan[0].calcAppPoolUserArray[33].registrarTable.staticRegistrarsList = "1 "
gammaScenario.lan[0].switch.toCalcAppPoolUser[33].channel.delay = 0ms
gammaScenario.lan[0].calcAppPoolUserArray[33].toNetwork.channel.delay = 0ms
gammaScenario.lan[0].calcAppPoolUserArray[34].transportNode.interfaceAddress = 46
gammaScenario.lan[0].calcAppPoolUserArray[34].registrarTable.staticRegistrarsList = "1 "
gammaScenario.lan[0].switch.toCalcAppPoolUser[34].channel.delay = 0ms
gammaScenario.lan[0].calcAppPoolUserArray[34].toNetwork.channel.delay = 0ms
gammaScenario.lan[0].calcAppPoolUserArray[35].transportNode.interfaceAddress = 47
gammaScenario.lan[0].calcAppPoolUserArray[35].registrarTable.staticRegistrarsList = "1 "
gammaScenario.lan[0].switch.toCalcAppPoolUser[35].channel.delay = 0ms
gammaScenario.lan[0].calcAppPoolUserArray[35].toNetwork.channel.delay = 0ms
gammaScenario.lan[0].calcAppPoolUserArray[36].transportNode.interfaceAddress = 48
gammaScenario.lan[0].calcAppPoolUserArray[36].registrarTable.staticRegistrarsList = "1 "
gammaScenario.lan[0].switch.toCalcAppPoolUser[36].channel.delay = 0ms
gammaScenario.lan[0].calcAppPoolUserArray[36].toNetwork.channel.delay = 0ms
gammaScenario.lan[0].calcAppPoolUserArray[37].transportNode.interfaceAddress = 49
gammaScenario.lan[0].calcAppPoolUserArray[37].registrarTable.staticRegistrarsList = "1 "
gammaScenario.lan[0].switch.toCalcAppPoolUser[37].channel.delay = 0ms
gammaScenario.lan[0].calcAppPoolUserArray[37].toNetwork.channel.delay = 0ms
gammaScenario.lan[0].calcAppPoolUserArray[38].transportNode.interfaceAddress = 50
gammaScenario.lan[0].calcAppPoolUserArray[38].registrarTable.staticRegistrarsList = "1 "
gammaScenario.lan[0].switch.toCalcAppPoolUser[38].channel.delay = 0ms
gammaScenario.lan[0].calcAppPoolUserArray[38].toNetwork.channel.delay = 0ms
gammaScenario.lan[0].calcAppPoolUserArray[39].transportNode.interfaceAddress = 51
gammaScenario.lan[0].calcAppPoolUserArray[39].registrarTable.staticRegistrarsList = "1 "
gammaScenario.lan[0].switch.toCalcAppPoolUser[39].channel.delay = 0ms
gammaScenario.lan[0].calcAppPoolUserArray[39].toNetwork.channel.delay = 0ms
gammaScenario.lan[0].calcAppPoolUserArray[40].transportNode.interfaceAddress = 52
gammaScenario.lan[0].calcAppPoolUserArray[40].registrarTable.staticRegistrarsList = "1 "
gammaScenario.lan[0].switch.toCalcAppPoolUser[40].channel.delay = 0ms
gammaScenario.lan[0].calcAppPoolUserArray[40].toNetwork.channel.delay = 0ms
gammaScenario.lan[0].calcAppPoolUserArray[41].transportNode.interfaceAddress = 53
gammaScenario.lan[0].calcAppPoolUserArray[41].registrarTable.staticRegistrarsList = "1 "
gammaScenario.lan[0].switch.toCalcAppPoolUser[41].channel.delay = 0ms
gammaScenario.lan[0].calcAppPoolUserArray[41].toNetwork.channel.delay = 0ms
gammaScenario.lan[0].calcAppPoolUserArray[42].transportNode.interfaceAddress = 54
gammaScenario.lan[0].calcAppPoolUserArray[42].registrarTable.staticRegistrarsList = "1 "
gammaScenario.lan[0].switch.toCalcAppPoolUser[42].channel.delay = 0ms
gammaScenario.lan[0].calcAppPoolUserArray[42].toNetwork.channel.delay = 0ms
gammaScenario.lan[0].calcAppPoolUserArray[43].transportNode.interfaceAddress = 55
gammaScenario.lan[0].calcAppPoolUserArray[43].registrarTable.staticRegistrarsList = "1 "
gammaScenario.lan[0].switch.toCalcAppPoolUser[43].channel.delay = 0ms
gammaScenario.lan[0].calcAppPoolUserArray[43].toNetwork.channel.delay = 0ms
gammaScenario.lan[0].calcAppPoolUserArray[44].transportNode.interfaceAddress = 56
gammaScenario.lan[0].calcAppPoolUserArray[44].registrarTable.staticRegistrarsList = "1 "
gammaScenario.lan[0].switch.toCalcAppPoolUser[44].channel.delay = 0ms
gammaScenario.lan[0].calcAppPoolUserArray[44].toNetwork.channel.delay = 0ms
gammaScenario.lan[0].calcAppPoolUserArray[45].transportNode.interfaceAddress = 57
gammaScenario.lan[0].calcAppPoolUserArray[45].registrarTable.staticRegistrarsList = "1 "
gammaScenario.lan[0].switch.toCalcAppPoolUser[45].channel.delay = 0ms
gammaScenario.lan[0].calcAppPoolUserArray[45].toNetwork.channel.delay = 0ms
gammaScenario.lan[0].calcAppPoolUserArray[46].transportNode.interfaceAddress = 58
gammaScenario.lan[0].calcAppPoolUserArray[46].registrarTable.staticRegistrarsList = "1 "
gammaScenario.lan[0].switch.toCalcAppPoolUser[46].channel.delay = 0ms
gammaScenario.lan[0].calcAppPoolUserArray[46].toNetwork.channel.delay = 0ms
gammaScenario.lan[0].calcAppPoolUserArray[47].transportNode.interfaceAddress = 59
gammaScenario.lan[0].calcAppPoolUserArray[47].registrarTable.staticRegistrarsList = "1 "
gammaScenario.lan[0].switch.toCalcAppPoolUser[47].channel.delay = 0ms
gammaScenario.lan[0].calcAppPoolUserArray[47].toNetwork.channel.delay = 0ms
gammaScenario.lan[0].calcAppPoolUserArray[48].transportNode.interfaceAddress = 60
gammaScenario.lan[0].calcAppPoolUserArray[48].registrarTable.staticRegistrarsList = "1 "
gammaScenario.lan[0].switch.toCalcAppPoolUser[48].channel.delay = 0ms
gammaScenario.lan[0].calcAppPoolUserArray[48].toNetwork.channel.delay = 0ms
gammaScenario.lan[0].calcAppPoolUserArray[49].transportNode.interfaceAddress = 61
gammaScenario.lan[0].calcAppPoolUserArray[49].registrarTable.staticRegistrarsList = "1 "
gammaScenario.lan[0].switch.toCalcAppPoolUser[49].channel.delay = 0ms
gammaScenario.lan[0].calcAppPoolUserArray[49].toNetwork.channel.delay = 0ms
gammaScenario.lan[0].calcAppPoolUserArray[50].transportNode.interfaceAddress = 62
gammaScenario.lan[0].calcAppPoolUserArray[50].registrarTable.staticRegistrarsList = "1 "
gammaScenario.lan[0].switch.toCalcAppPoolUser[50].channel.delay = 0ms
gammaScenario.lan[0].calcAppPoolUserArray[50].toNetwork.channel.delay = 0ms
gammaScenario.lan[0].calcAppPoolUserArray[51].transportNode.interfaceAddress = 63
gammaScenario.lan[0].calcAppPoolUserArray[51].registrarTable.staticRegistrarsList = "1 "
gammaScenario.lan[0].switch.toCalcAppPoolUser[51].channel.delay = 0ms
gammaScenario.lan[0].calcAppPoolUserArray[51].toNetwork.channel.delay = 0ms
gammaScenario.lan[0].calcAppPoolUserArray[52].transportNode.interfaceAddress = 64
gammaScenario.lan[0].calcAppPoolUserArray[52].registrarTable.staticRegistrarsList = "1 "
gammaScenario.lan[0].switch.toCalcAppPoolUser[52].channel.delay = 0ms
gammaScenario.lan[0].calcAppPoolUserArray[52].toNetwork.channel.delay = 0ms
gammaScenario.lan[0].calcAppPoolUserArray[53].transportNode.interfaceAddress = 65
gammaScenario.lan[0].calcAppPoolUserArray[53].registrarTable.staticRegistrarsList = "1 "
gammaScenario.lan[0].switch.toCalcAppPoolUser[53].channel.delay = 0ms
gammaScenario.lan[0].calcAppPoolUserArray[53].toNetwork.channel.delay = 0ms
gammaScenario.lan[0].calcAppPoolUserArray[54].transportNode.interfaceAddress = 66
gammaScenario.lan[0].calcAppPoolUserArray[54].registrarTable.staticRegistrarsList = "1 "
gammaScenario.lan[0].switch.toCalcAppPoolUser[54].channel.delay = 0ms
gammaScenario.lan[0].calcAppPoolUserArray[54].toNetwork.channel.delay = 0ms
gammaScenario.lan[0].calcAppPoolUserArray[55].transportNode.interfaceAddress = 67
gammaScenario.lan[0].calcAppPoolUserArray[55].registrarTable.staticRegistrarsList = "1 "
gammaScenario.lan[0].switch.toCalcAppPoolUser[55].channel.delay = 0ms
gammaScenario.lan[0].calcAppPoolUserArray[55].toNetwork.channel.delay = 0ms
gammaScenario.lan[0].calcAppPoolUserArray[56].transportNode.interfaceAddress = 68
gammaScenario.lan[0].calcAppPoolUserArray[56].registrarTable.staticRegistrarsList = "1 "
gammaScenario.lan[0].switch.toCalcAppPoolUser[56].channel.delay = 0ms
gammaScenario.lan[0].calcAppPoolUserArray[56].toNetwork.channel.delay = 0ms
gammaScenario.lan[0].calcAppPoolUserArray[57].transportNode.interfaceAddress = 69
gammaScenario.lan[0].calcAppPoolUserArray[57].registrarTable.staticRegistrarsList = "1 "
gammaScenario.lan[0].switch.toCalcAppPoolUser[57].channel.delay = 0ms
gammaScenario.lan[0].calcAppPoolUserArray[57].toNetwork.channel.delay = 0ms
gammaScenario.lan[0].calcAppPoolUserArray[58].transportNode.interfaceAddress = 70
gammaScenario.lan[0].calcAppPoolUserArray[58].registrarTable.staticRegistrarsList = "1 "
gammaScenario.lan[0].switch.toCalcAppPoolUser[58].channel.delay = 0ms
gammaScenario.lan[0].calcAppPoolUserArray[58].toNetwork.channel.delay = 0ms
gammaScenario.lan[0].calcAppPoolUserArray[59].transportNode.interfaceAddress = 71
gammaScenario.lan[0].calcAppPoolUserArray[59].registrarTable.staticRegistrarsList = "1 "
gammaScenario.lan[0].switch.toCalcAppPoolUser[59].channel.delay = 0ms
gammaScenario.lan[0].calcAppPoolUserArray[59].toNetwork.channel.delay = 0ms
gammaScenario.lan[0].calcAppPoolUserArray[60].transportNode.interfaceAddress = 72
gammaScenario.lan[0].calcAppPoolUserArray[60].registrarTable.staticRegistrarsList = "1 "
gammaScenario.lan[0].switch.toCalcAppPoolUser[60].channel.delay = 0ms
gammaScenario.lan[0].calcAppPoolUserArray[60].toNetwork.channel.delay = 0ms
gammaScenario.lan[0].calcAppPoolUserArray[61].transportNode.interfaceAddress = 73
gammaScenario.lan[0].calcAppPoolUserArray[61].registrarTable.staticRegistrarsList = "1 "
gammaScenario.lan[0].switch.toCalcAppPoolUser[61].channel.delay = 0ms
gammaScenario.lan[0].calcAppPoolUserArray[61].toNetwork.channel.delay = 0ms
gammaScenario.lan[0].calcAppPoolUserArray[62].transportNode.interfaceAddress = 74
gammaScenario.lan[0].calcAppPoolUserArray[62].registrarTable.staticRegistrarsList = "1 "
gammaScenario.lan[0].switch.toCalcAppPoolUser[62].channel.delay = 0ms
gammaScenario.lan[0].calcAppPoolUserArray[62].toNetwork.channel.delay = 0ms
gammaScenario.lan[0].calcAppPoolUserArray[63].transportNode.interfaceAddress = 75
gammaScenario.lan[0].calcAppPoolUserArray[63].registrarTable.staticRegistrarsList = "1 "
gammaScenario.lan[0].switch.toCalcAppPoolUser[63].channel.delay = 0ms
gammaScenario.lan[0].calcAppPoolUserArray[63].toNetwork.channel.delay = 0ms
gammaScenario.lan[0].calcAppPoolUserArray[64].transportNode.interfaceAddress = 76
gammaScenario.lan[0].calcAppPoolUserArray[64].registrarTable.staticRegistrarsList = "1 "
gammaScenario.lan[0].switch.toCalcAppPoolUser[64].channel.delay = 0ms
gammaScenario.lan[0].calcAppPoolUserArray[64].toNetwork.channel.delay = 0ms
gammaScenario.lan[0].calcAppPoolUserArray[65].transportNode.interfaceAddress = 77
gammaScenario.lan[0].calcAppPoolUserArray[65].registrarTable.staticRegistrarsList = "1 "
gammaScenario.lan[0].switch.toCalcAppPoolUser[65].channel.delay = 0ms
gammaScenario.lan[0].calcAppPoolUserArray[65].toNetwork.channel.delay = 0ms
gammaScenario.lan[0].calcAppPoolUserArray[66].transportNode.interfaceAddress = 78
gammaScenario.lan[0].calcAppPoolUserArray[66].registrarTable.staticRegistrarsList = "1 "
gammaScenario.lan[0].switch.toCalcAppPoolUser[66].channel.delay = 0ms
gammaScenario.lan[0].calcAppPoolUserArray[66].toNetwork.channel.delay = 0ms
gammaScenario.lan[0].calcAppPoolUserArray[67].transportNode.interfaceAddress = 79
gammaScenario.lan[0].calcAppPoolUserArray[67].registrarTable.staticRegistrarsList = "1 "
gammaScenario.lan[0].switch.toCalcAppPoolUser[67].channel.delay = 0ms
gammaScenario.lan[0].calcAppPoolUserArray[67].toNetwork.channel.delay = 0ms
gammaScenario.lan[0].calcAppPoolUserArray[68].transportNode.interfaceAddress = 80
gammaScenario.lan[0].calcAppPoolUserArray[68].registrarTable.staticRegistrarsList = "1 "
gammaScenario.lan[0].switch.toCalcAppPoolUser[68].channel.delay = 0ms
gammaScenario.lan[0].calcAppPoolUserArray[68].toNetwork.channel.delay = 0ms
gammaScenario.lan[0].calcAppPoolUserArray[69].transportNode.interfaceAddress = 81
gammaScenario.lan[0].calcAppPoolUserArray[69].registrarTable.staticRegistrarsList = "1 "
gammaScenario.lan[0].switch.toCalcAppPoolUser[69].channel.delay = 0ms
gammaScenario.lan[0].calcAppPoolUserArray[69].toNetwork.channel.delay = 0ms
gammaScenario.lan[0].calcAppPoolUserArray[70].transportNode.interfaceAddress = 82
gammaScenario.lan[0].calcAppPoolUserArray[70].registrarTable.staticRegistrarsList = "1 "
gammaScenario.lan[0].switch.toCalcAppPoolUser[70].channel.delay = 0ms
gammaScenario.lan[0].calcAppPoolUserArray[70].toNetwork.channel.delay = 0ms
gammaScenario.lan[0].calcAppPoolUserArray[71].transportNode.interfaceAddress = 83
gammaScenario.lan[0].calcAppPoolUserArray[71].registrarTable.staticRegistrarsList = "1 "
gammaScenario.lan[0].switch.toCalcAppPoolUser[71].channel.delay = 0ms
gammaScenario.lan[0].calcAppPoolUserArray[71].toNetwork.channel.delay = 0ms
gammaScenario.lan[0].calcAppPoolUserArray[72].transportNode.interfaceAddress = 84
gammaScenario.lan[0].calcAppPoolUserArray[72].registrarTable.staticRegistrarsList = "1 "
gammaScenario.lan[0].switch.toCalcAppPoolUser[72].channel.delay = 0ms
gammaScenario.lan[0].calcAppPoolUserArray[72].toNetwork.channel.delay = 0ms
gammaScenario.lan[0].calcAppPoolUserArray[73].transportNode.interfaceAddress = 85
gammaScenario.lan[0].calcAppPoolUserArray[73].registrarTable.staticRegistrarsList = "1 "
gammaScenario.lan[0].switch.toCalcAppPoolUser[73].channel.delay = 0ms
gammaScenario.lan[0].calcAppPoolUserArray[73].toNetwork.channel.delay = 0ms
gammaScenario.lan[0].calcAppPoolUserArray[74].transportNode.interfaceAddress = 86
gammaScenario.lan[0].calcAppPoolUserArray[74].registrarTable.staticRegistrarsList = "1 "
gammaScenario.lan[0].switch.toCalcAppPoolUser[74].channel.delay = 0ms
gammaScenario.lan[0].calcAppPoolUserArray[74].toNetwork.channel.delay = 0ms
gammaScenario.lan[0].calcAppPoolUserArray[75].transportNode.interfaceAddress = 87
gammaScenario.lan[0].calcAppPoolUserArray[75].registrarTable.staticRegistrarsList = "1 "
gammaScenario.lan[0].switch.toCalcAppPoolUser[75].channel.delay = 0ms
gammaScenario.lan[0].calcAppPoolUserArray[75].toNetwork.channel.delay = 0ms
gammaScenario.lan[0].calcAppPoolUserArray[76].transportNode.interfaceAddress = 88
gammaScenario.lan[0].calcAppPoolUserArray[76].registrarTable.staticRegistrarsList = "1 "
gammaScenario.lan[0].switch.toCalcAppPoolUser[76].channel.delay = 0ms
gammaScenario.lan[0].calcAppPoolUserArray[76].toNetwork.channel.delay = 0ms
gammaScenario.lan[0].calcAppPoolUserArray[77].transportNode.interfaceAddress = 89
gammaScenario.lan[0].calcAppPoolUserArray[77].registrarTable.staticRegistrarsList = "1 "
gammaScenario.lan[0].switch.toCalcAppPoolUser[77].channel.delay = 0ms
gammaScenario.lan[0].calcAppPoolUserArray[77].toNetwork.channel.delay = 0ms
gammaScenario.lan[0].calcAppPoolUserArray[78].transportNode.interfaceAddress = 90
gammaScenario.lan[0].calcAppPoolUserArray[78].registrarTable.staticRegistrarsList = "1 "
gammaScenario.lan[0].switch.toCalcAppPoolUser[78].channel.delay = 0ms
gammaScenario.lan[0].calcAppPoolUserArray[78].toNetwork.channel.delay = 0ms
gammaScenario.lan[0].calcAppPoolUserArray[79].transportNode.interfaceAddress = 91
gammaScenario.lan[0].calcAppPoolUserArray[79].registrarTable.staticRegistrarsList = "1 "
gammaScenario.lan[0].switch.toCalcAppPoolUser[79].channel.delay = 0ms
gammaScenario.lan[0].calcAppPoolUserArray[79].toNetwork.channel.delay = 0ms
gammaScenario.lan[0].calcAppPoolUserArray[80].transportNode.interfaceAddress = 92